  20
  -532.06446701757045     
 C    -1.85600752    -0.19199777    -0.59866311
 C    -0.48957202    -0.19155776    -0.84987897
 C     0.42553685    -1.22161840    -0.16947978
 O    -3.15448857    -2.73917721     1.96841256
 C     1.18476335    -1.04674709     1.11206151
 H    -0.03150519     0.58775717    -1.57779619
 H     2.44257289    -2.66652623     2.28388598
 H    -0.99581495    -2.38975477     1.59418463
 H    -2.54026672     0.58091708    -1.12907838
 C    -2.57616532    -1.15309912     0.35281153
 C    -4.07763900    -1.21825367     0.45284297
 H    -5.38880687    -2.59121882     1.85920531
 H    -4.83124793    -0.59415819    -0.16083075
 H     1.25981722    -0.07910366     1.73969224
 C    -4.37809315    -2.18811460     1.43541147
 C     1.76469214    -2.30179270     1.40548161
 C    -2.06689988    -2.08706398     1.28620648
 C     0.59229704    -2.55613755    -0.56896346
 O     1.41519110    -3.26077344     0.38299540
 H     0.15408651    -3.14392926    -1.47611104
